// * * * * * * * * * * * * * * * * * * * * * * * * * * * * * * * * * * * * * //
FoamFile
{
    version     2.0;
    format      ascii;
    class       volScalarField;
    object      k;
}
// * * * * * * * * * * * * * * * * * * * * * * * * * * * * * * * * * * * * * //

dimensions      [0 2 -2 0 0 0 0];

internalField   uniform 0.1;

boundaryField
{
    xmin
    {
        type            inletOutlet;
        inletValue      uniform 0.01;
        value           uniform 0.01;
    }
    
    xmax
    {
        type            inletOutlet;
        inletValue      uniform 0.01;
        value           uniform 0.01;
    }
    
    ymin
    {
        type            zeroGradient;
    }
    
    ymax
    {
        type            zeroGradient;
    }
    
    zmin
    {
        type            zeroGradient;
    }
    
    zmax
    {
        type            inletOutlet;
        inletValue      uniform 0.01;
        value           uniform 0.01;
    }

    mywalls  { type kqRWallFunction;  value uniform 0.; }
    bottom   { type kqRWallFunction;  value uniform 0.; }
    column   { type kqRWallFunction;  value uniform 0.; }

    // Wird nach Gitter-Manipulationen oft gebraucht!
    oldInternalFaces
    {
        type            zeroGradient;
    }
}

// ************************************************************************* //
