/*--------------------------------*- C++ -*----------------------------------*\
| =========                 |                                                 |
| \\      /  F ield         | OpenFOAM: The Open Source CFD Toolbox           |
|  \\    /   O peration     | Version:  2212                                  |
|   \\  /    A nd           | Website:  www.openfoam.com                      |
|    \\/     M anipulation  |                                                 |
\*---------------------------------------------------------------------------*/
FoamFile
{
    version     2.0;
    format      ascii;
    arch        "LSB;label=32;scalar=64";
    class       polyBoundaryMesh;
    location    "constant/polyMesh";
    object      boundary;
}
// * * * * * * * * * * * * * * * * * * * * * * * * * * * * * * * * * * * * * //

6
(
    xmin
    {
        type            wall;
        inGroups        1(wall);
        nFaces          288;
        startFace       40712;
    }
    xmax
    {
        type            wall;
        inGroups        1(wall);
        nFaces          288;
        startFace       41000;
    }
    ymin
    {
        type            wall;
        inGroups        1(wall);
        nFaces          400;
        startFace       41288;
    }
    ymax
    {
        type            wall;
        inGroups        1(wall);
        nFaces          400;
        startFace       41688;
    }
    zmin
    {
        type            wall;
        inGroups        1(wall);
        nFaces          1800;
        startFace       42088;
    }
    zmax
    {
        type            wall;
        inGroups        1(wall);
        nFaces          1800;
        startFace       43888;
    }
)

// ************************************************************************* //
