// * * * * * * * * * * * * * * * * * * * * * * * * * * * * * * * * * * * * * //
FoamFile
{
    version     2.0;
    format      ascii;
    class       dictionary;
    object      controlDict;
}
// * * * * * * * * * * * * * * * * * * * * * * * * * * * * * * * * * * * * * //

application         snappyHexMesh;
startFrom           startTime;
startTime           0.;
stopAt              endTime;
endTime             99.;
deltaT              1.;

adjustTimeStep      no;

writeControl        timeStep;
writeInterval       1;

purgeWrite          0;
writeFormat         ascii;
writePrecision      12;
writeCompression    off;
timeFormat          general;
timePrecision       12;
runTimeModifiable   yes;

