// * * * * * * * * * * * * * * * * * * * * * * * * * * * * * * * * * * * * * //
FoamFile
{
    version     2.0;
    format      ascii;
    class       dictionary;
    object      decomposeParDict;
}
// * * * * * * * * * * * * * * * * * * * * * * * * * * * * * * * * * * * * * //

numberOfSubdomains 32;

method          scotch;

simpleCoeffs
{
    n               (2 2 1);
    delta           0.001;
}

hierarchicalCoeffs
{
    n               (4 2 2);
    delta           0.001;
    order           xyz;
}

metisCoeffs
{
}

manualCoeffs
{
    dataFile        "";
}

distributed     no;

roots           
(
);

// ************************************************************************* //



